Circuit: * D:\silab_git\Embedded-System-Lab\code\SMU\BSP89.asc

.step vds=1
.step vds=2
.step vds=3
.step vds=4
.step vds=5
.step vds=6
.step vds=7
.step vds=8
.step vds=9
.step vds=10

Date: Fri Apr 05 18:32:44 2024
Total elapsed time: 2.115 seconds.

tnom = 27
temp = 27
method = trap
totiter = 200050
traniter = 0
tranpoints = 0
accept = 0
rejected = 0
matrix size = 8
fillins = 0
solver = Normal
Matrix Compiler1: 326 bytes object code size  0.1/0.1/[0.1]
Matrix Compiler2: 554 bytes object code size  0.1/0.1/[0.0]

